
  EPA STORM WATER MANAGEMENT MODEL - VERSION 5.1 (Build 5.1.012)
  --------------------------------------------------------------

  WARNING 04: minimum elevation drop used for Conduit 6609-S
  WARNING 04: minimum elevation drop used for Conduit 660C-S
  WARNING 04: minimum elevation drop used for Conduit 6611_2-S
  WARNING 04: minimum elevation drop used for Conduit 6615-S
  WARNING 04: minimum elevation drop used for Conduit 662F_2-S
  WARNING 04: minimum elevation drop used for Conduit 6630_3-S
  WARNING 04: minimum elevation drop used for Conduit 6644_1-S
  WARNING 04: minimum elevation drop used for Conduit 6651-S
  WARNING 04: minimum elevation drop used for Conduit 6652-S
  WARNING 04: minimum elevation drop used for Conduit 6663-S
  WARNING 04: minimum elevation drop used for Conduit 666D_2-S
  WARNING 04: minimum elevation drop used for Conduit 6676_2-S
  WARNING 04: minimum elevation drop used for Conduit 6679-S
  WARNING 04: minimum elevation drop used for Conduit 668F_1-S
  WARNING 04: minimum elevation drop used for Conduit 6741-S
  WARNING 04: minimum elevation drop used for Conduit 6760-S
  WARNING 04: minimum elevation drop used for Conduit 676D-S
  WARNING 04: minimum elevation drop used for Conduit 680C-S
  WARNING 04: minimum elevation drop used for Conduit 6826_1-S
  WARNING 04: minimum elevation drop used for Conduit 6E94-S
  WARNING 04: minimum elevation drop used for Conduit 7EC4_3-S
  WARNING 04: minimum elevation drop used for Conduit 7ED9_3-S
  WARNING 04: minimum elevation drop used for Conduit A133-S
  WARNING 04: minimum elevation drop used for Conduit A136-S
  WARNING 04: minimum elevation drop used for Conduit A159-S
  WARNING 04: minimum elevation drop used for Conduit A170-S
  WARNING 04: minimum elevation drop used for Conduit A181-S
  WARNING 04: minimum elevation drop used for Conduit A185-S
  WARNING 04: minimum elevation drop used for Conduit A187-S
  WARNING 04: minimum elevation drop used for Conduit A192-S
  WARNING 04: minimum elevation drop used for Conduit A219-S
  WARNING 04: minimum elevation drop used for Conduit A220-S
  WARNING 04: minimum elevation drop used for Conduit A289-S
  WARNING 04: minimum elevation drop used for Conduit A296-S
  WARNING 04: minimum elevation drop used for Conduit A299-S
  WARNING 04: minimum elevation drop used for Conduit A306-S
  WARNING 04: minimum elevation drop used for Conduit A323-S
  WARNING 04: minimum elevation drop used for Conduit A325_1-S
  WARNING 04: minimum elevation drop used for Conduit A343-S
  WARNING 04: minimum elevation drop used for Conduit A358-S
  WARNING 04: minimum elevation drop used for Conduit A361-S
  WARNING 04: minimum elevation drop used for Conduit A364-S
  WARNING 04: minimum elevation drop used for Conduit A366-S
  WARNING 04: minimum elevation drop used for Conduit A368-S
  WARNING 04: minimum elevation drop used for Conduit A371-S
  WARNING 04: minimum elevation drop used for Conduit A374-S
  WARNING 04: minimum elevation drop used for Conduit A378-S
  WARNING 04: minimum elevation drop used for Conduit A396-S
  WARNING 04: minimum elevation drop used for Conduit A406_1-S
  WARNING 04: minimum elevation drop used for Conduit A427_1-S
  WARNING 04: minimum elevation drop used for Conduit A429-S
  WARNING 04: minimum elevation drop used for Conduit A435-S
  WARNING 04: minimum elevation drop used for Conduit A445-S
  WARNING 04: minimum elevation drop used for Conduit A54_2-S
  WARNING 04: minimum elevation drop used for Conduit C121-S
  WARNING 04: minimum elevation drop used for Conduit C130-S
  WARNING 04: minimum elevation drop used for Conduit C134-S
  WARNING 04: minimum elevation drop used for Conduit C136-S1
  WARNING 04: minimum elevation drop used for Conduit C139-D
  WARNING 04: minimum elevation drop used for Conduit C141-S1
  WARNING 04: minimum elevation drop used for Conduit C146-S3
  WARNING 04: minimum elevation drop used for Conduit C161-S
  WARNING 04: minimum elevation drop used for Conduit C172-S1
  WARNING 04: minimum elevation drop used for Conduit C176-S
  WARNING 04: minimum elevation drop used for Conduit C177-S
  WARNING 04: minimum elevation drop used for Conduit C178-S
  WARNING 04: minimum elevation drop used for Conduit C180-S
  WARNING 04: minimum elevation drop used for Conduit C182-S
  WARNING 04: minimum elevation drop used for Conduit C187-S
  WARNING 04: minimum elevation drop used for Conduit C188-S1
  WARNING 04: minimum elevation drop used for Conduit C18-S29
  WARNING 04: minimum elevation drop used for Conduit C18-S33
  WARNING 04: minimum elevation drop used for Conduit C18-S73
  WARNING 04: minimum elevation drop used for Conduit C18-S77
  WARNING 04: minimum elevation drop used for Conduit C190-1
  WARNING 04: minimum elevation drop used for Conduit C194-D
  WARNING 04: minimum elevation drop used for Conduit C2
  WARNING 04: minimum elevation drop used for Conduit C207-S
  WARNING 04: minimum elevation drop used for Conduit C20-S
  WARNING 04: minimum elevation drop used for Conduit C211-S
  WARNING 04: minimum elevation drop used for Conduit C217-S1
  WARNING 04: minimum elevation drop used for Conduit C235-S
  WARNING 04: minimum elevation drop used for Conduit C240-S
  WARNING 04: minimum elevation drop used for Conduit C242-S
  WARNING 04: minimum elevation drop used for Conduit C245-S
  WARNING 04: minimum elevation drop used for Conduit C246-S
  WARNING 04: minimum elevation drop used for Conduit C247-S
  WARNING 04: minimum elevation drop used for Conduit C254-S
  WARNING 04: minimum elevation drop used for Conduit C258-S
  WARNING 04: minimum elevation drop used for Conduit C25-S
  WARNING 04: minimum elevation drop used for Conduit C266-S
  WARNING 04: minimum elevation drop used for Conduit C276-S
  WARNING 04: minimum elevation drop used for Conduit C278-S
  WARNING 04: minimum elevation drop used for Conduit C284-S
  WARNING 04: minimum elevation drop used for Conduit C297-S
  WARNING 04: minimum elevation drop used for Conduit C299-S
  WARNING 04: minimum elevation drop used for Conduit C314-S
  WARNING 04: minimum elevation drop used for Conduit C320-S
  WARNING 04: minimum elevation drop used for Conduit C326-S
  WARNING 04: minimum elevation drop used for Conduit C345-S
  WARNING 04: minimum elevation drop used for Conduit C34-S
  WARNING 04: minimum elevation drop used for Conduit C373-S
  WARNING 04: minimum elevation drop used for Conduit C374-S
  WARNING 04: minimum elevation drop used for Conduit C375-S
  WARNING 04: minimum elevation drop used for Conduit C376-S
  WARNING 04: minimum elevation drop used for Conduit C378-S
  WARNING 04: minimum elevation drop used for Conduit C37-S
  WARNING 04: minimum elevation drop used for Conduit C380-S
  WARNING 04: minimum elevation drop used for Conduit C382-S
  WARNING 04: minimum elevation drop used for Conduit C384-S
  WARNING 04: minimum elevation drop used for Conduit C391
  WARNING 04: minimum elevation drop used for Conduit C40-S
  WARNING 04: minimum elevation drop used for Conduit C41_1-S
  WARNING 04: minimum elevation drop used for Conduit C437R
  WARNING 04: minimum elevation drop used for Conduit C43-D
  WARNING 04: minimum elevation drop used for Conduit C44_1-S
  WARNING 04: minimum elevation drop used for Conduit C44-S
  WARNING 04: minimum elevation drop used for Conduit C485-S
  WARNING 04: minimum elevation drop used for Conduit C48-S2
  WARNING 04: minimum elevation drop used for Conduit C49-S1
  WARNING 04: minimum elevation drop used for Conduit C49-S2
  WARNING 04: minimum elevation drop used for Conduit C54-S
  WARNING 04: minimum elevation drop used for Conduit C55-S
  WARNING 04: minimum elevation drop used for Conduit C56-S
  WARNING 04: minimum elevation drop used for Conduit C58-D
  WARNING 04: minimum elevation drop used for Conduit C66-D
  WARNING 04: minimum elevation drop used for Conduit C68-S137
  WARNING 04: minimum elevation drop used for Conduit C68-S155
  WARNING 04: minimum elevation drop used for Conduit C69-S73
  WARNING 04: minimum elevation drop used for Conduit C69-S74
  WARNING 04: minimum elevation drop used for Conduit C79-D
  WARNING 04: minimum elevation drop used for Conduit C9-S
  WARNING 04: minimum elevation drop used for Conduit XC101_1
  WARNING 04: minimum elevation drop used for Conduit XC101_7
  WARNING 04: minimum elevation drop used for Conduit XC118
  WARNING 04: minimum elevation drop used for Conduit XC121_1
  WARNING 04: minimum elevation drop used for Conduit XC121_2
  WARNING 04: minimum elevation drop used for Conduit XC77_2
  WARNING 02: maximum depth increased for Node 16E4C
  WARNING 02: maximum depth increased for Node 16F1F
  WARNING 02: maximum depth increased for Node 16F20
  WARNING 02: maximum depth increased for Node 16F24
  WARNING 02: maximum depth increased for Node 16F2C
  WARNING 02: maximum depth increased for Node 16F2D
  WARNING 02: maximum depth increased for Node 16F33
  WARNING 02: maximum depth increased for Node 16F3E
  WARNING 02: maximum depth increased for Node 16F55
  WARNING 02: maximum depth increased for Node 16F67
  WARNING 02: maximum depth increased for Node 16F68
  WARNING 02: maximum depth increased for Node 16FC5
  WARNING 02: maximum depth increased for Node 16FC8
  WARNING 02: maximum depth increased for Node 16FC9
  WARNING 02: maximum depth increased for Node 16FD1
  WARNING 02: maximum depth increased for Node 16FD2
  WARNING 02: maximum depth increased for Node 16FF1
  WARNING 02: maximum depth increased for Node 16FF3
  WARNING 02: maximum depth increased for Node 172BB
  WARNING 02: maximum depth increased for Node 172EE
  WARNING 02: maximum depth increased for Node 172F5
  WARNING 02: maximum depth increased for Node 172F6
  WARNING 02: maximum depth increased for Node 185C4
  WARNING 02: maximum depth increased for Node 185C5
  WARNING 02: maximum depth increased for Node 185C6
  WARNING 02: maximum depth increased for Node 185C7
  WARNING 02: maximum depth increased for Node 185ED
  WARNING 02: maximum depth increased for Node 185EE
  WARNING 02: maximum depth increased for Node 185EF
  WARNING 02: maximum depth increased for Node 185F0
  WARNING 02: maximum depth increased for Node 185F1
  WARNING 02: maximum depth increased for Node 185F6
  WARNING 02: maximum depth increased for Node 18609
  WARNING 02: maximum depth increased for Node 1860A
  WARNING 02: maximum depth increased for Node 1860B
  WARNING 02: maximum depth increased for Node 1860C
  WARNING 02: maximum depth increased for Node 1860D
  WARNING 02: maximum depth increased for Node 1860E
  WARNING 02: maximum depth increased for Node 196DC
  WARNING 02: maximum depth increased for Node 23381
  WARNING 02: maximum depth increased for Node 23382
  WARNING 02: maximum depth increased for Node 233FF
  WARNING 02: maximum depth increased for Node 23445
  WARNING 02: maximum depth increased for Node 23446
  WARNING 02: maximum depth increased for Node 2347B
  WARNING 02: maximum depth increased for Node 234A4
  WARNING 02: maximum depth increased for Node 234A9
  WARNING 02: maximum depth increased for Node 235B1
  WARNING 02: maximum depth increased for Node 235D2
  WARNING 02: maximum depth increased for Node 2361A
  WARNING 02: maximum depth increased for Node 2361B
  WARNING 02: maximum depth increased for Node 2361C
  WARNING 02: maximum depth increased for Node 2361D
  WARNING 02: maximum depth increased for Node 2362A
  WARNING 02: maximum depth increased for Node 2362D
  WARNING 02: maximum depth increased for Node 2362E
  WARNING 02: maximum depth increased for Node 23634
  WARNING 02: maximum depth increased for Node 23888
  WARNING 02: maximum depth increased for Node 2388D
  WARNING 02: maximum depth increased for Node 238D3
  WARNING 02: maximum depth increased for Node 238D4
  WARNING 02: maximum depth increased for Node 238F6
  WARNING 02: maximum depth increased for Node 238F7
  WARNING 02: maximum depth increased for Node 23925
  WARNING 02: maximum depth increased for Node 239E4
  WARNING 02: maximum depth increased for Node 239E5
  WARNING 02: maximum depth increased for Node 2831B
  WARNING 02: maximum depth increased for Node 2831E
  WARNING 02: maximum depth increased for Node 2831F
  WARNING 02: maximum depth increased for Node 28321
  WARNING 02: maximum depth increased for Node 2839B
  WARNING 02: maximum depth increased for Node 2839C
  WARNING 02: maximum depth increased for Node 283A0
  WARNING 02: maximum depth increased for Node 283A2
  WARNING 02: maximum depth increased for Node 283A6
  WARNING 02: maximum depth increased for Node 283A7
  WARNING 02: maximum depth increased for Node 283A8
  WARNING 02: maximum depth increased for Node 2841B
  WARNING 02: maximum depth increased for Node 28484
  WARNING 02: maximum depth increased for Node 28485
  WARNING 02: maximum depth increased for Node 28493
  WARNING 02: maximum depth increased for Node 28530
  WARNING 02: maximum depth increased for Node 28532
  WARNING 02: maximum depth increased for Node 28533
  WARNING 02: maximum depth increased for Node 28539
  WARNING 02: maximum depth increased for Node 2853F
  WARNING 02: maximum depth increased for Node 28540
  WARNING 02: maximum depth increased for Node 28541
  WARNING 02: maximum depth increased for Node 28542
  WARNING 02: maximum depth increased for Node 28543
  WARNING 02: maximum depth increased for Node 28544
  WARNING 02: maximum depth increased for Node 28545
  WARNING 02: maximum depth increased for Node 28546
  WARNING 02: maximum depth increased for Node 28547
  WARNING 02: maximum depth increased for Node 28548
  WARNING 02: maximum depth increased for Node 28549
  WARNING 02: maximum depth increased for Node 2854A
  WARNING 02: maximum depth increased for Node 2854B
  WARNING 02: maximum depth increased for Node 2J10
  WARNING 02: maximum depth increased for Node 2J5
  WARNING 02: maximum depth increased for Node 2J7
  WARNING 02: maximum depth increased for Node 2J9
  WARNING 02: maximum depth increased for Node cJ2
  WARNING 02: maximum depth increased for Node cJ55
  WARNING 02: maximum depth increased for Node cJ56_1
  WARNING 02: maximum depth increased for Node J1
  WARNING 02: maximum depth increased for Node J100
  WARNING 02: maximum depth increased for Node J101
  WARNING 02: maximum depth increased for Node J102
  WARNING 02: maximum depth increased for Node J1-1
  WARNING 02: maximum depth increased for Node J1-11
  WARNING 02: maximum depth increased for Node J1111111
  WARNING 02: maximum depth increased for Node J11111113
  WARNING 02: maximum depth increased for Node J119-1
  WARNING 02: maximum depth increased for Node J120-1
  WARNING 02: maximum depth increased for Node J121-1
  WARNING 02: maximum depth increased for Node J125
  WARNING 02: maximum depth increased for Node J128
  WARNING 02: maximum depth increased for Node J133
  WARNING 02: maximum depth increased for Node J136
  WARNING 02: maximum depth increased for Node J14
  WARNING 02: maximum depth increased for Node J146-1
  WARNING 02: maximum depth increased for Node J153
  WARNING 02: maximum depth increased for Node J154
  WARNING 02: maximum depth increased for Node J157-1
  WARNING 02: maximum depth increased for Node J157-D
  WARNING 02: maximum depth increased for Node J158
  WARNING 02: maximum depth increased for Node J161
  WARNING 02: maximum depth increased for Node J168
  WARNING 02: maximum depth increased for Node J173
  WARNING 02: maximum depth increased for Node J187
  WARNING 02: maximum depth increased for Node J19
  WARNING 02: maximum depth increased for Node J198
  WARNING 02: maximum depth increased for Node J199
  WARNING 02: maximum depth increased for Node J2
  WARNING 02: maximum depth increased for Node J20
  WARNING 02: maximum depth increased for Node J202
  WARNING 02: maximum depth increased for Node J203
  WARNING 02: maximum depth increased for Node J209
  WARNING 02: maximum depth increased for Node J2-1
  WARNING 02: maximum depth increased for Node J210
  WARNING 02: maximum depth increased for Node J217-D
  WARNING 02: maximum depth increased for Node J218-D
  WARNING 02: maximum depth increased for Node J219-D
  WARNING 02: maximum depth increased for Node J226
  WARNING 02: maximum depth increased for Node J227
  WARNING 02: maximum depth increased for Node J230
  WARNING 02: maximum depth increased for Node J231
  WARNING 02: maximum depth increased for Node J234
  WARNING 02: maximum depth increased for Node J238
  WARNING 02: maximum depth increased for Node J239
  WARNING 02: maximum depth increased for Node J249
  WARNING 02: maximum depth increased for Node J250
  WARNING 02: maximum depth increased for Node J253
  WARNING 02: maximum depth increased for Node J256
  WARNING 02: maximum depth increased for Node J26
  WARNING 02: maximum depth increased for Node J271
  WARNING 02: maximum depth increased for Node J272-1
  WARNING 02: maximum depth increased for Node J273
  WARNING 02: maximum depth increased for Node J274
  WARNING 02: maximum depth increased for Node J275-1
  WARNING 02: maximum depth increased for Node J276
  WARNING 02: maximum depth increased for Node J276-1
  WARNING 02: maximum depth increased for Node J277
  WARNING 02: maximum depth increased for Node J277-1
  WARNING 02: maximum depth increased for Node J278-1
  WARNING 02: maximum depth increased for Node J279-1
  WARNING 02: maximum depth increased for Node J280
  WARNING 02: maximum depth increased for Node J280-1
  WARNING 02: maximum depth increased for Node J297
  WARNING 02: maximum depth increased for Node J298
  WARNING 02: maximum depth increased for Node J3
  WARNING 02: maximum depth increased for Node J30-D
  WARNING 02: maximum depth increased for Node J312
  WARNING 02: maximum depth increased for Node J31-D
  WARNING 02: maximum depth increased for Node J328
  WARNING 02: maximum depth increased for Node J329
  WARNING 02: maximum depth increased for Node J32-D
  WARNING 02: maximum depth increased for Node J340
  WARNING 02: maximum depth increased for Node J349
  WARNING 02: maximum depth increased for Node J362
  WARNING 02: maximum depth increased for Node J371
  WARNING 02: maximum depth increased for Node J374
  WARNING 02: maximum depth increased for Node J403
  WARNING 02: maximum depth increased for Node J405
  WARNING 02: maximum depth increased for Node J41
  WARNING 02: maximum depth increased for Node J410
  WARNING 02: maximum depth increased for Node J412
  WARNING 02: maximum depth increased for Node J422
  WARNING 02: maximum depth increased for Node J423
  WARNING 02: maximum depth increased for Node J427
  WARNING 02: maximum depth increased for Node J429
  WARNING 02: maximum depth increased for Node J43
  WARNING 02: maximum depth increased for Node J436
  WARNING 02: maximum depth increased for Node J44
  WARNING 02: maximum depth increased for Node J441
  WARNING 02: maximum depth increased for Node J444
  WARNING 02: maximum depth increased for Node J449
  WARNING 02: maximum depth increased for Node J449R
  WARNING 02: maximum depth increased for Node J451R
  WARNING 02: maximum depth increased for Node J453
  WARNING 02: maximum depth increased for Node J455
  WARNING 02: maximum depth increased for Node J457
  WARNING 02: maximum depth increased for Node J459
  WARNING 02: maximum depth increased for Node J460
  WARNING 02: maximum depth increased for Node J461
  WARNING 02: maximum depth increased for Node J462
  WARNING 02: maximum depth increased for Node J465
  WARNING 02: maximum depth increased for Node J467
  WARNING 02: maximum depth increased for Node J468
  WARNING 02: maximum depth increased for Node J473
  WARNING 02: maximum depth increased for Node J480
  WARNING 02: maximum depth increased for Node J481
  WARNING 02: maximum depth increased for Node J483
  WARNING 02: maximum depth increased for Node J484
  WARNING 02: maximum depth increased for Node J50
  WARNING 02: maximum depth increased for Node J503
  WARNING 02: maximum depth increased for Node J525
  WARNING 02: maximum depth increased for Node J526
  WARNING 02: maximum depth increased for Node J527
  WARNING 02: maximum depth increased for Node J528
  WARNING 02: maximum depth increased for Node J536R
  WARNING 02: maximum depth increased for Node J537
  WARNING 02: maximum depth increased for Node J537R
  WARNING 02: maximum depth increased for Node J538
  WARNING 02: maximum depth increased for Node J538R
  WARNING 02: maximum depth increased for Node J539R
  WARNING 02: maximum depth increased for Node J540R
  WARNING 02: maximum depth increased for Node J541
  WARNING 02: maximum depth increased for Node J541R
  WARNING 02: maximum depth increased for Node J542R
  WARNING 02: maximum depth increased for Node J543R
  WARNING 02: maximum depth increased for Node J544R
  WARNING 02: maximum depth increased for Node J545R
  WARNING 02: maximum depth increased for Node J546R
  WARNING 02: maximum depth increased for Node J547R
  WARNING 02: maximum depth increased for Node J549-D
  WARNING 02: maximum depth increased for Node J549R
  WARNING 02: maximum depth increased for Node J550R
  WARNING 02: maximum depth increased for Node J551R
  WARNING 02: maximum depth increased for Node J552R
  WARNING 02: maximum depth increased for Node J553R
  WARNING 02: maximum depth increased for Node J554R
  WARNING 02: maximum depth increased for Node J555R
  WARNING 02: maximum depth increased for Node J556R
  WARNING 02: maximum depth increased for Node J557R
  WARNING 02: maximum depth increased for Node J558R
  WARNING 02: maximum depth increased for Node J559R
  WARNING 02: maximum depth increased for Node J56-1
  WARNING 02: maximum depth increased for Node J563R
  WARNING 02: maximum depth increased for Node J566R
  WARNING 02: maximum depth increased for Node J567R
  WARNING 02: maximum depth increased for Node J568R
  WARNING 02: maximum depth increased for Node J569R
  WARNING 02: maximum depth increased for Node J570R
  WARNING 02: maximum depth increased for Node J571R
  WARNING 02: maximum depth increased for Node J572R
  WARNING 02: maximum depth increased for Node J573R
  WARNING 02: maximum depth increased for Node J574R
  WARNING 02: maximum depth increased for Node J575R
  WARNING 02: maximum depth increased for Node J576R
  WARNING 02: maximum depth increased for Node J577R
  WARNING 02: maximum depth increased for Node J578R
  WARNING 02: maximum depth increased for Node J579R
  WARNING 02: maximum depth increased for Node J580R
  WARNING 02: maximum depth increased for Node J581R
  WARNING 02: maximum depth increased for Node J582R
  WARNING 02: maximum depth increased for Node J583R
  WARNING 02: maximum depth increased for Node J584R
  WARNING 02: maximum depth increased for Node J586R
  WARNING 02: maximum depth increased for Node J587R
  WARNING 02: maximum depth increased for Node J588R
  WARNING 02: maximum depth increased for Node J59
  WARNING 02: maximum depth increased for Node J6
  WARNING 02: maximum depth increased for Node J6-1
  WARNING 02: maximum depth increased for Node J64
  WARNING 02: maximum depth increased for Node J65
  WARNING 02: maximum depth increased for Node J66
  WARNING 02: maximum depth increased for Node J67
  WARNING 02: maximum depth increased for Node J68
  WARNING 02: maximum depth increased for Node J69
  WARNING 02: maximum depth increased for Node J70
  WARNING 02: maximum depth increased for Node J71
  WARNING 02: maximum depth increased for Node J72
  WARNING 02: maximum depth increased for Node J73
  WARNING 02: maximum depth increased for Node J77
  WARNING 02: maximum depth increased for Node J87
  WARNING 02: maximum depth increased for Node J91
  WARNING 02: maximum depth increased for Node J94
  WARNING 02: maximum depth increased for Node J97
  WARNING 02: maximum depth increased for Node OF12
  WARNING 02: maximum depth increased for Node OF14
  WARNING 02: maximum depth increased for Node OF37
  WARNING 02: maximum depth increased for Node OF95
  WARNING 02: maximum depth increased for Node XJ10
  WARNING 02: maximum depth increased for Node XJ100
  WARNING 02: maximum depth increased for Node XJ102
  WARNING 02: maximum depth increased for Node XJ11
  WARNING 02: maximum depth increased for Node XJ12
  WARNING 02: maximum depth increased for Node XJ13
  WARNING 02: maximum depth increased for Node XJ158
  WARNING 02: maximum depth increased for Node XJ16E9A
  WARNING 02: maximum depth increased for Node XJ173
  WARNING 02: maximum depth increased for Node XJ174
  WARNING 02: maximum depth increased for Node XJ175
  WARNING 02: maximum depth increased for Node XJ176
  WARNING 02: maximum depth increased for Node XJ177
  WARNING 02: maximum depth increased for Node XJ178
  WARNING 02: maximum depth increased for Node XJ179
  WARNING 02: maximum depth increased for Node XJ180
  WARNING 02: maximum depth increased for Node XJ181
  WARNING 02: maximum depth increased for Node XJ182
  WARNING 02: maximum depth increased for Node XJ183
  WARNING 02: maximum depth increased for Node XJ184
  WARNING 02: maximum depth increased for Node XJ185
  WARNING 02: maximum depth increased for Node XJ186
  WARNING 02: maximum depth increased for Node XJ187
  WARNING 02: maximum depth increased for Node XJ188
  WARNING 02: maximum depth increased for Node XJ189
  WARNING 02: maximum depth increased for Node XJ190
  WARNING 02: maximum depth increased for Node XJ191
  WARNING 02: maximum depth increased for Node XJ192
  WARNING 02: maximum depth increased for Node XJ193
  WARNING 02: maximum depth increased for Node XJ194
  WARNING 02: maximum depth increased for Node XJ195
  WARNING 02: maximum depth increased for Node XJ196
  WARNING 02: maximum depth increased for Node XJ197
  WARNING 02: maximum depth increased for Node XJ198
  WARNING 02: maximum depth increased for Node XJ199
  WARNING 02: maximum depth increased for Node XJ200
  WARNING 02: maximum depth increased for Node XJ201
  WARNING 02: maximum depth increased for Node XJ202
  WARNING 02: maximum depth increased for Node XJ203
  WARNING 02: maximum depth increased for Node XJ204
  WARNING 02: maximum depth increased for Node XJ205
  WARNING 02: maximum depth increased for Node XJ206
  WARNING 02: maximum depth increased for Node XJ207
  WARNING 02: maximum depth increased for Node XJ208
  WARNING 02: maximum depth increased for Node XJ209
  WARNING 02: maximum depth increased for Node XJ23403
  WARNING 02: maximum depth increased for Node XJ23455
  WARNING 02: maximum depth increased for Node XJ2345F
  WARNING 02: maximum depth increased for Node XJ234B4
  WARNING 02: maximum depth increased for Node XJ235AD
  WARNING 02: maximum depth increased for Node XJ2362C
  WARNING 02: maximum depth increased for Node XJ254_N
  WARNING 02: maximum depth increased for Node XJ26
  WARNING 02: maximum depth increased for Node XJ28405
  WARNING 02: maximum depth increased for Node XJ2849A
  WARNING 02: maximum depth increased for Node XJ2853D
  WARNING 02: maximum depth increased for Node XJ2853E
  WARNING 02: maximum depth increased for Node XJ28602
  WARNING 02: maximum depth increased for Node XJ298_N
  WARNING 02: maximum depth increased for Node XJ3
  WARNING 02: maximum depth increased for Node XJ30
  WARNING 02: maximum depth increased for Node XJ301
  WARNING 02: maximum depth increased for Node XJ33
  WARNING 02: maximum depth increased for Node XJ37
  WARNING 02: maximum depth increased for Node XJ39
  WARNING 02: maximum depth increased for Node XJ40
  WARNING 02: maximum depth increased for Node XJ43
  WARNING 02: maximum depth increased for Node XJ45
  WARNING 02: maximum depth increased for Node XJ46
  WARNING 02: maximum depth increased for Node XJ49
  WARNING 02: maximum depth increased for Node XJ5
  WARNING 02: maximum depth increased for Node XJ51
  WARNING 02: maximum depth increased for Node XJ52
  WARNING 02: maximum depth increased for Node XJ54
  WARNING 02: maximum depth increased for Node XJ55
  WARNING 02: maximum depth increased for Node XJ57
  WARNING 02: maximum depth increased for Node XJ6
  WARNING 02: maximum depth increased for Node XJ64
  WARNING 02: maximum depth increased for Node XJ65
  WARNING 02: maximum depth increased for Node XJ651
  WARNING 02: maximum depth increased for Node XJ67
  WARNING 02: maximum depth increased for Node XJ69
  WARNING 02: maximum depth increased for Node XJ7
  WARNING 02: maximum depth increased for Node XJ70
  WARNING 02: maximum depth increased for Node XJ71
  WARNING 02: maximum depth increased for Node XJ72
  WARNING 02: maximum depth increased for Node XJ76
  WARNING 02: maximum depth increased for Node XJ79
  WARNING 02: maximum depth increased for Node XJ8
  WARNING 02: maximum depth increased for Node XJ91
  WARNING 02: maximum depth increased for Node XJ95
  WARNING 02: maximum depth increased for Node XJOF10
  WARNING 02: maximum depth increased for Node XJOF11
  WARNING 02: maximum depth increased for Node XJOF70
  WARNING 02: maximum depth increased for Node XJOF71
  WARNING 02: maximum depth increased for Node XJOF89
  WARNING 02: maximum depth increased for Node XJOF91
  WARNING 02: maximum depth increased for Node XJOF92
  WARNING 02: maximum depth increased for Node XJOF93
  WARNING 02: maximum depth increased for Node XJOF94
  WARNING 02: maximum depth increased for Node XJOF96
  
  *************
  Element Count
  *************
  Number of rain gages ...... 7
  Number of subcatchments ... 3127
  Number of nodes ........... 1407
  Number of links ........... 2411
  Number of pollutants ...... 0
  Number of land uses ....... 0
  
  
  ****************
  Raingage Summary
  ****************
                                                      Data       Recording
  Name                 Data Source                    Type       Interval 
  ------------------------------------------------------------------------
  30year               30year                         VOLUME       5 min.
  hebi_2y_2hrs_5min    hebi_2y_2hrs_5min-2            VOLUME       5 min.
  Rain_1Y              Hebi_1Y_2Hr_5Min               VOLUME       5 min.
  Rain_30Y_3Hr_Chicago Hebi_30Y_3Hr_5Min              VOLUME       5 min.
  Rain_5Y              Hebi_5Y_2Hr_5Min               VOLUME       5 min.
  Rain25mm             Hebi_25mm_2Hr                  VOLUME       5 min.
  Raing_30Y            hebi_30y_24hrs_10min           VOLUME      10 min.
  
  
  ********************
  Subcatchment Summary
  ********************
  Name                       Area     Width   %Imperv    %Slope Rain Gage            Outlet              
  -----------------------------------------------------------------------------------------------------------
  1                        132.90  13376.14     35.43    0.5000 Rain_30Y_3Hr_Chicago J544R               
  1S2314_1                   0.50     95.44     13.34    0.5000 Rain_30Y_3Hr_Chicago 16F24               
  1S2316                     0.48     69.06     21.50    0.5000 Rain_30Y_3Hr_Chicago 16F24               
  1S2321                     1.62    127.37     22.27    0.5000 Rain_30Y_3Hr_Chicago 16F27               
  1S2322                     1.77    133.21      1.72    0.5000 Rain_30Y_3Hr_Chicago J136                
  1S2323                     1.31    114.66     30.64    0.5000 Rain_30Y_3Hr_Chicago 16EC1               
  1S2329                     0.26     51.27     56.61    0.5000 Rain_30Y_3Hr_Chicago 16F2A               
  1S2330                     0.01     11.49     70.25    0.5000 Rain_30Y_3Hr_Chicago 16F4F               
  1S2331                     0.37     60.80     44.59    0.5000 Rain_30Y_3Hr_Chicago 16EF3               
  1S2332                     2.23    149.25     44.59    0.5000 Rain_30Y_3Hr_Chicago J140                
  1S2333                     0.11     32.70      0.39    0.5000 Rain_30Y_3Hr_Chicago 1J3                 
  1S2335                     0.19     43.78     32.36    0.5000 Rain_30Y_3Hr_Chicago 16F29               
  1S2336                     0.20     44.52     57.91    0.5000 Rain_30Y_3Hr_Chicago 16F2B               
  1S2337                     0.20     44.97      4.99    0.5000 Rain_30Y_3Hr_Chicago 16F6F               
  1S2352                     6.45    253.96     36.49    0.5000 Rain_30Y_3Hr_Chicago XJ173               
  1S2353                     5.25    229.10     22.03    0.5000 Rain_30Y_3Hr_Chicago XJ173               
  1S2355                     0.57     75.47     26.27    0.5000 Rain_30Y_3Hr_Chicago XJ52                
  1S2356                     0.57     75.53     56.91    0.5000 Rain_30Y_3Hr_Chicago XJ52                
  1S2358_1                   0.26     51.06     19.50    0.5000 Rain_30Y_3Hr_Chicago XJ651               
  1S2358_2                   0.41     64.13     71.42    0.5000 Rain_30Y_3Hr_Chicago XJ66                
  1S2360                     0.57     75.37      5.09    0.5000 Rain_30Y_3Hr_Chicago XJ57                
  1S2361                     0.04     20.32      0.03    0.5000 Rain_30Y_3Hr_Chicago XJ57                
  1S2364_1                   0.29     53.50     61.88    0.5000 Rain_30Y_3Hr_Chicago XJ67                
  1S2364_2                   0.40     63.13      6.43    0.5000 Rain_30Y_3Hr_Chicago J297                
  1S2366                     2.64    162.50      5.00    0.5000 Rain_30Y_3Hr_Chicago XJ186               
  1S2371                     3.67    191.62      5.00    0.5000 Rain_30Y_3Hr_Chicago XJ173               
  1S2374                     2.65    162.80      5.00    0.5000 Rain_30Y_3Hr_Chicago 16EFA               
  1S2382                     0.09     30.71      5.00    0.5000 Rain_30Y_3Hr_Chicago J298                
  1S2386                     4.66    215.90     25.97    0.5000 Rain_30Y_3Hr_Chicago XJ102               
  1S2387                     3.13    176.81     18.75    0.5000 Rain_30Y_3Hr_Chicago XJ102               
  1S2388                     3.90    197.54     10.00    0.5000 Rain_30Y_3Hr_Chicago J280                
  1S24                       1.08     30.00     79.45    0.5000 Rain_30Y_3Hr_Chicago 16EF2               
  1S25_1                     1.41     18.01     85.00    0.5000 Rain_30Y_3Hr_Chicago J273                
  1S25_3                     1.05     15.40     85.00    0.5000 Rain_30Y_3Hr_Chicago J273                
  1S25_4                     1.00     14.60     85.00    0.5000 Rain_30Y_3Hr_Chicago J273                
  1S25_5                     0.94     11.99     85.00    0.5000 Rain_30Y_3Hr_Chicago J273                
  1S2594                     4.11    202.78      3.02    0.5000 Rain_30Y_3Hr_Chicago XJ184               
  1S2595_1                   2.85    168.85     22.02    0.5000 Rain_30Y_3Hr_Chicago XJ184               
  1S2595_3                   4.46    211.17     17.10    0.5000 Rain_30Y_3Hr_Chicago XJ185               
  1S2595_4                   4.83    219.73     16.98    0.5000 Rain_30Y_3Hr_Chicago XJOF10              
  1S26                       1.35    115.99     44.17    0.5000 Rain_30Y_3Hr_Chicago 16F0E               
  1S2600_1                   0.28     52.67     67.13    0.5000 Rain_30Y_3Hr_Chicago XJOF92              
  1S2600_3                   0.29     53.99     65.00    0.5000 Rain_30Y_3Hr_Chicago XJOF93              
  1S2600_4                   0.43     65.37      5.00    0.5000 Rain_30Y_3Hr_Chicago XJOF10              
  1S2603                     0.08     27.82     13.84    0.5000 Rain_30Y_3Hr_Chicago XJ254_N             
  1S2693_1                   1.13     30.00     64.00    0.5000 Rain_30Y_3Hr_Chicago 16F4F               
  1S2693_2                   1.69     30.00     82.53    0.5000 Rain_30Y_3Hr_Chicago J138                
  1S2694_1                   0.74     30.00     85.00    0.5000 Rain_30Y_3Hr_Chicago 16EC0               
  1S2694_2                   0.74     30.00     85.00    0.5000 Rain_30Y_3Hr_Chicago 16EBF               
  1S2696_1                   0.70     30.00     85.00    0.5000 Rain_30Y_3Hr_Chicago 16EC4               
  1S2696_2                   0.79     30.00     83.33    0.5000 Rain_30Y_3Hr_Chicago 16EC5               
  1S2698_1                   0.76     30.01     85.00    0.5000 Rain_30Y_3Hr_Chicago 16EBB               
  1S2698_2                   1.09     29.99     85.00    0.5000 Rain_30Y_3Hr_Chicago 16EBA               
  1S2698_3                   0.94     30.00     85.00    0.5000 Rain_30Y_3Hr_Chicago J289                
  1S2698_4                   0.93     30.00     77.64    0.5000 Rain_30Y_3Hr_Chicago J288                
  1S2698_6                   1.01     30.00     85.00    0.5000 Rain_30Y_3Hr_Chicago J112                
  1S2698_7                   0.83     30.00     71.83    0.5000 Rain_30Y_3Hr_Chicago 16EAE               
  1S2699_1                   0.84     30.00     85.00    0.5000 Rain_30Y_3Hr_Chicago 16E3D               
  1S2699_2                   0.90     30.00     85.00    0.5000 Rain_30Y_3Hr_Chicago 16E3A               
  1S2700_1                   0.92     30.00     85.00    0.5000 Rain_30Y_3Hr_Chicago 16F3F               
  1S2700_2                   1.16     30.00     81.67    0.5000 Rain_30Y_3Hr_Chicago 16F40               
  1S2705_1                   1.21     30.00     70.47    0.5000 Rain_30Y_3Hr_Chicago J55                 
  1S2705_2                   1.29     30.00     82.04    0.5000 Rain_30Y_3Hr_Chicago 16E42               
  1S2705_3                   1.39     30.00     83.59    0.5000 Rain_30Y_3Hr_Chicago 16E41               
  1S2705_4                   1.04     30.00     74.32    0.5000 Rain_30Y_3Hr_Chicago J56                 
  1S2705_6                   1.37     30.00     81.94    0.5000 Rain_30Y_3Hr_Chicago J78                 
  1S2705_7                   1.48     30.00     80.54    0.5000 Rain_30Y_3Hr_Chicago J59                 
  1S2705_8                   1.21     30.00     75.79    0.5000 Rain_30Y_3Hr_Chicago 16ECB               
  1S2705_9                   1.54     30.00     84.94    0.5000 Rain_30Y_3Hr_Chicago 16ECA               
  1S2706_1                   1.14     30.00     70.73    0.5000 Rain_30Y_3Hr_Chicago 16F6F               
  1S2706_2                   1.44     30.00     79.21    0.5000 Rain_30Y_3Hr_Chicago 16F70               
  1S2710_1                   1.02     30.01     85.00    0.5000 Rain_30Y_3Hr_Chicago 16EAC               
  1S2710_2                   0.87     30.00     76.35    0.5000 Rain_30Y_3Hr_Chicago J104                
  1S2710_3                   0.48     30.00     81.46    0.5000 Rain_30Y_3Hr_Chicago XJ52                
  1S2710_5                   0.54     30.00     85.00    0.5000 Rain_30Y_3Hr_Chicago XJ51                
  1S2710_6                   1.42     29.99     85.00    0.5000 Rain_30Y_3Hr_Chicago 16EC6               
  1S2710_7                   1.24     30.00     68.19    0.5000 Rain_30Y_3Hr_Chicago 16EC7               
  1S2710_8                   0.83     29.99     82.27    0.5000 Rain_30Y_3Hr_Chicago 16E4B               
  1S2710_9                   0.74     30.00     77.56    0.5000 Rain_30Y_3Hr_Chicago J286                
  1S2715_1                   0.81     30.00     77.82    0.5000 Rain_30Y_3Hr_Chicago 16F20               
  1S2715_2                   1.00     30.00     80.90    0.5000 Rain_30Y_3Hr_Chicago 16F1F               
  1S2723_2                   0.62     30.00     85.00    0.5000 Rain_30Y_3Hr_Chicago 16E97               
  1S2723_3                   1.64     30.00     74.92    0.5000 Rain_30Y_3Hr_Chicago 16E48               
  1S2723_4                   1.43     30.00     81.60    0.5000 Rain_30Y_3Hr_Chicago 16E86               
  1S2723_5                   1.40     30.00     85.00    0.5000 Rain_30Y_3Hr_Chicago 16E8E               
  1S2724_1                   0.45     30.00     85.00    0.5000 Rain_30Y_3Hr_Chicago 1J2                 
  1S2724_2                   0.77     30.00     85.00    0.5000 Rain_30Y_3Hr_Chicago 16F2D               
  1S2724_3                   0.72     30.00     85.00    0.5000 Rain_30Y_3Hr_Chicago 16EF4               
  1S2724_4                   0.78     30.00     85.00    0.5000 Rain_30Y_3Hr_Chicago 16EF3               
  1S2724_5                   0.80     30.36     85.00    0.5000 Rain_30Y_3Hr_Chicago 16F2B               
  1S2724_7                   0.37     30.00     85.00    0.5000 Rain_30Y_3Hr_Chicago 16F2A               
  1S2725_1                   0.55     29.99     85.00    0.5000 Rain_30Y_3Hr_Chicago 16EF9               
  1S2725_3                   0.68     30.00     83.23    0.5000 Rain_30Y_3Hr_Chicago 16EFA               
  1S2725_4                   0.57     30.00     85.00    0.5000 Rain_30Y_3Hr_Chicago J291                
  1S2725_5                   0.47     29.99     84.82    0.5000 Rain_30Y_3Hr_Chicago 16EF7               
  1S2726_1                   1.75     30.00     85.00    0.5000 Rain_30Y_3Hr_Chicago 16E6A               
  1S2726_2                   1.52     30.72     83.43    0.5000 Rain_30Y_3Hr_Chicago J296                
  1S2726_3                   2.79     30.00     69.34    0.5000 Rain_30Y_3Hr_Chicago 16E36               
  1S2726_4                   1.56     29.99     73.42    0.5000 Rain_30Y_3Hr_Chicago J296                
  1S2726_5                   2.26     30.00     80.91    0.5000 Rain_30Y_3Hr_Chicago J252                
  1S2726_6                   2.67     30.00     77.89    0.5000 Rain_30Y_3Hr_Chicago 1738E               
  1S2726_8                   0.88     30.01     85.00    0.5000 Rain_30Y_3Hr_Chicago 16F14               
  1S2730_1                   0.95     30.00     85.00    0.5000 Rain_30Y_3Hr_Chicago J108                
  1S2730_3                   1.35     30.00     85.00    0.5000 Rain_30Y_3Hr_Chicago 16F32               
  1S2730_4                   1.60     30.00     84.14    0.5000 Rain_30Y_3Hr_Chicago 16F6E               
  1S2730_5                   1.14     30.00     85.00    0.5000 Rain_30Y_3Hr_Chicago 16F6D               
  1S2730_6                   1.62     30.00     85.00    0.5000 Rain_30Y_3Hr_Chicago 16F42               
  1S2730_7                   0.79     30.00     85.00    0.5000 Rain_30Y_3Hr_Chicago 16F15               
  1S2734_1                   0.78     30.00     85.00    0.5000 Rain_30Y_3Hr_Chicago 16F2E               
  1S2734_2                   0.57     29.99     85.00    0.5000 Rain_30Y_3Hr_Chicago JB1                 
  1S2734_3                   0.83     30.00     85.00    0.5000 Rain_30Y_3Hr_Chicago 16F30               
  1S2734_5                   0.47     30.00     85.00    0.5000 Rain_30Y_3Hr_Chicago 16F8B               
  1S2734_6                   0.87     29.99     85.00    0.5000 Rain_30Y_3Hr_Chicago 16F34               
  1S2735                     0.79     30.00     85.00    0.5000 Rain_30Y_3Hr_Chicago 16F31               
  1S2736_2                   1.02     30.00     84.09    0.5000 Rain_30Y_3Hr_Chicago 16F39               
  1S2736_3                   0.71     30.00     81.80    0.5000 Rain_30Y_3Hr_Chicago J142                
  1S2736_4                   1.83     30.00     85.00    0.5000 Rain_30Y_3Hr_Chicago 16F7C               
  1S2736_5                   1.43     30.00     80.60    0.5000 Rain_30Y_3Hr_Chicago J141                
  1S2736_6                   1.59     30.00     81.48    0.5000 Rain_30Y_3Hr_Chicago 16F3C               
  1S2736_7                   1.26     30.00     78.35    0.5000 Rain_30Y_3Hr_Chicago 16F3D               
  1S2737_2                   1.08     30.00     77.04    0.5000 Rain_30Y_3Hr_Chicago 16F68               
  1S2737_4                   1.28     30.00     80.73    0.5000 Rain_30Y_3Hr_Chicago 16F67               
  1S2737_5                   2.34     27.68     83.68    0.5000 Rain_30Y_3Hr_Chicago 16F19               
  1S2737_6                   1.50     30.00     83.68    0.5000 Rain_30Y_3Hr_Chicago J109                
  1S2737_7                   1.20     30.00     81.32    0.5000 Rain_30Y_3Hr_Chicago J113                
  1S2737_8                   1.02     29.99     80.57    0.5000 Rain_30Y_3Hr_Chicago 16F56               
  1S2737_9                   1.00     30.00     85.00    0.5000 Rain_30Y_3Hr_Chicago 16F57               
  1S2751_1                   0.70     30.00     85.00    0.5000 Rain_30Y_3Hr_Chicago J148                
  1S2751_10                  1.24     30.00     85.00    0.5000 Rain_30Y_3Hr_Chicago J123                
  1S2751_11                  1.15     30.00     85.00    0.5000 Rain_30Y_3Hr_Chicago J152                
  1S2751_12                  0.63     30.00     85.00    0.5000 Rain_30Y_3Hr_Chicago J12                 
  1S2751_13                  0.74     29.99     82.78    0.5000 Rain_30Y_3Hr_Chicago J11                 
  1S2751_2                   0.46     29.99     84.47    0.5000 Rain_30Y_3Hr_Chicago 16F18               
  1S2751_3                   1.09     30.00     79.98    0.5000 Rain_30Y_3Hr_Chicago 16F17               
  1S2751_4                   0.48     30.00     84.52    0.5000 Rain_30Y_3Hr_Chicago J149                
  1S2751_5                   0.53     30.00     85.00    0.5000 Rain_30Y_3Hr_Chicago J10                 
  1S2751_6                   0.66     30.00     85.00    0.5000 Rain_30Y_3Hr_Chicago J115                
  1S2751_7                   1.11     29.99     85.00    0.5000 Rain_30Y_3Hr_Chicago J147                
  1S2751_9                   0.46     30.00     80.83    0.5000 Rain_30Y_3Hr_Chicago J9                  
  1S2752_1                   0.62     30.00     85.00    0.5000 Rain_30Y_3Hr_Chicago 16FB1               
  1S2752_2                   0.70     30.00     85.00    0.5000 Rain_30Y_3Hr_Chicago J269                
  1S2754_1                   0.56     30.00     85.00    0.5000 Rain_30Y_3Hr_Chicago 16F98               
  1S2754_2                   0.63     30.00     85.00    0.5000 Rain_30Y_3Hr_Chicago 16F97               
  1S2755_1                   0.60     30.00     85.00    0.5000 Rain_30Y_3Hr_Chicago 16FAD               
  1S2755_2                   0.68     30.00     85.00    0.5000 Rain_30Y_3Hr_Chicago 16FAC               
  1S2768_1                   0.86     30.00     85.00    0.5000 Rain_30Y_3Hr_Chicago 16FC3               
  1S2768_10                  1.05     30.00     82.47    0.5000 Rain_30Y_3Hr_Chicago 16FD0               
  1S2768_12                  0.54     30.00     84.17    0.5000 Rain_30Y_3Hr_Chicago 16FD1               
  1S2768_13                  0.68     30.00     85.00    0.5000 Rain_30Y_3Hr_Chicago 16FD2               
  1S2768_3                   1.41     30.00     85.00    0.5000 Rain_30Y_3Hr_Chicago 16FA1               
  1S2768_4                   0.75     30.00     82.69    0.5000 Rain_30Y_3Hr_Chicago 16FC2               
  1S2768_5                   0.79     29.99     85.00    0.5000 Rain_30Y_3Hr_Chicago 16FA2               
  1S2768_6                   1.35     30.00     85.00    0.5000 Rain_30Y_3Hr_Chicago J265                
  1S2768_7                   0.78     30.00     84.61    0.5000 Rain_30Y_3Hr_Chicago 16FCF               
  1S2768_8                   0.84     30.00     83.27    0.5000 Rain_30Y_3Hr_Chicago 16FA3               
  1S2768_9                   1.15     30.00     85.00    0.5000 Rain_30Y_3Hr_Chicago 16FA4               
  1S2777_1                   0.69     30.00     85.00    0.5000 Rain_30Y_3Hr_Chicago 16FB8               
  1S2777_2                   0.78     30.00     85.00    0.5000 Rain_30Y_3Hr_Chicago 16FB9               
  1S2778_1                   0.90     30.00     85.00    0.5000 Rain_30Y_3Hr_Chicago 16FF0               
  1S2778_2                   1.58     30.00     85.00    0.5000 Rain_30Y_3Hr_Chicago 16FEF               
  1S2779                     0.99     30.00     85.00    0.5000 Rain_30Y_3Hr_Chicago 17001               
  1S2780_1                   0.54     29.99     85.00    0.5000 Rain_30Y_3Hr_Chicago 17002               
  1S2780_10                  0.49     30.01     85.00    0.5000 Rain_30Y_3Hr_Chicago 17001               
  1S2780_11                  0.51     30.00     85.00    0.5000 Rain_30Y_3Hr_Chicago 17000               
  1S2780_2                   0.71     30.03     85.00    0.5000 Rain_30Y_3Hr_Chicago 16FFF               
  1S2780_3                   0.52     30.00     85.00    0.5000 Rain_30Y_3Hr_Chicago 17003               
  1S2780_5                   0.71     30.00     80.66    0.5000 Rain_30Y_3Hr_Chicago J150                
  1S2780_6                   0.63     30.00     85.00    0.5000 Rain_30Y_3Hr_Chicago 16FFB               
  1S2780_7                   0.67     29.82     85.00    0.5000 Rain_30Y_3Hr_Chicago 16FFC               
  1S2780_8                   0.59     30.00     85.00    0.5000 Rain_30Y_3Hr_Chicago 16FFE               
  1S2780_9                   0.59     30.17     85.00    0.5000 Rain_30Y_3Hr_Chicago 16FFD               
  1S2782_1                   1.67     30.00     75.00    0.5000 Rain_30Y_3Hr_Chicago J275-1              
  1S2782_3                   0.91     29.99     85.00    0.5000 Rain_30Y_3Hr_Chicago J276-1              
  1S2782_4                   1.02     29.99     85.00    0.5000 Rain_30Y_3Hr_Chicago J276-1              
  1S2784_1                   3.32     30.00     85.00    0.5000 Rain_30Y_3Hr_Chicago J121-1              
  1S2784_3                   2.44     30.00     85.00    0.5000 Rain_30Y_3Hr_Chicago J1-1                
  1S2784_4                   3.30     30.00     85.00    0.5000 Rain_30Y_3Hr_Chicago J275-1              
  1S2786_1                   0.84     30.00     85.00    0.5000 Rain_30Y_3Hr_Chicago J1-1                
  1S2786_2                   1.06     30.00     85.00    0.5000 Rain_30Y_3Hr_Chicago J1-1                
  1S2788_1                   1.26     30.00     75.00    0.5000 Rain_30Y_3Hr_Chicago J1-1                
  1S2788_3                   1.11     29.99     75.00    0.5000 Rain_30Y_3Hr_Chicago J1-1                
  1S2788_4                   0.93     30.01     85.00    0.5000 Rain_30Y_3Hr_Chicago J1-1                
  1S2788_5                   0.80     30.01     85.00    0.5000 Rain_30Y_3Hr_Chicago J1-1                
  1S2790_1                   1.32     29.99     85.00    0.5000 Rain_30Y_3Hr_Chicago J1-1                
  1S2790_3                   1.15     30.00     83.65    0.5000 Rain_30Y_3Hr_Chicago J1-1                
  1S2790_4                   1.42     30.00     85.00    0.5000 Rain_30Y_3Hr_Chicago J1-1                
  1S2790_5                   1.49     30.00     85.00    0.5000 Rain_30Y_3Hr_Chicago J1-1                
  1S2791_1                   1.34     30.00     85.00    0.5000 Rain_30Y_3Hr_Chicago J1-11               
  1S2791_3                   1.38     30.00     85.00    0.5000 Rain_30Y_3Hr_Chicago J121-1              
  1S2791_4                   0.52     30.00     85.00    0.5000 Rain_30Y_3Hr_Chicago J1-11               
  1S2791_5                   0.62     30.00     73.11    0.5000 Rain_30Y_3Hr_Chicago J1-11               
  1S2792_1                   0.98     30.00     85.00    0.5000 Rain_30Y_3Hr_Chicago J1-1                
  1S2792_2                   1.27     30.00     85.00    0.5000 Rain_30Y_3Hr_Chicago J1-1                
  1S2794_1                   0.95     30.00     85.00    0.5000 Rain_30Y_3Hr_Chicago 16EF2               
  1S2794_2                   1.00     30.01     85.00    0.5000 Rain_30Y_3Hr_Chicago 16E99               
  1S2794_3                   0.97     29.99     85.00    0.5000 Rain_30Y_3Hr_Chicago 16E98               
  1S2794_5                   1.35     30.00     85.00    0.5000 Rain_30Y_3Hr_Chicago 16EF1               
  1S2794_6                   0.87     30.00     85.00    0.5000 Rain_30Y_3Hr_Chicago 16EB4               
  1S2794_7                   1.13     29.99     85.00    0.5000 Rain_30Y_3Hr_Chicago 16EB3               
  1S2795_1                   1.35     30.00     85.00    0.5000 Rain_30Y_3Hr_Chicago J275-1              
  1S2795_2                   1.32     30.00     85.00    0.5000 Rain_30Y_3Hr_Chicago J276-1              
  1S2856_3                   0.77     30.00     85.00    0.5000 Rain_30Y_3Hr_Chicago J278-1              
  1S2856_4                   0.63     30.00     85.00    0.5000 Rain_30Y_3Hr_Chicago J278-1              
  1S2860_1                   0.78     14.05     85.00    0.5000 Rain_30Y_3Hr_Chicago J50                 
  1S2860_3                   0.72     10.68     85.00    0.5000 Rain_30Y_3Hr_Chicago J280                
  1S2860_4                   1.30     19.32     85.00    0.5000 Rain_30Y_3Hr_Chicago J280                
  1S2860_5                   0.89     15.94     85.00    0.5000 Rain_30Y_3Hr_Chicago J50                 
  1S2862_1                   1.37     30.00     85.00    0.5000 Rain_30Y_3Hr_Chicago J280                
  1S2862_2                   1.46     30.00     85.00    0.5000 Rain_30Y_3Hr_Chicago J280                
  1S2869_1                   1.11     30.00     85.00    0.5000 Rain_30Y_3Hr_Chicago 16FF2               
  1S2869_10                  0.65     30.00     85.00    0.5000 Rain_30Y_3Hr_Chicago J20                 
  1S2869_11                  0.69     29.99     85.00    0.5000 Rain_30Y_3Hr_Chicago J19                 
  1S2869_2                   1.40     30.00     85.00    0.5000 Rain_30Y_3Hr_Chicago 16FF1               
  1S2869_3                   0.94     30.01     85.00    0.5000 Rain_30Y_3Hr_Chicago 17024               
  1S2869_4                   0.63     30.00     85.00    0.5000 Rain_30Y_3Hr_Chicago 1704C               
  1S2869_6                   0.73     30.00     85.00    0.5000 Rain_30Y_3Hr_Chicago J268                
  1S2869_7                   0.52     30.00     85.00    0.5000 Rain_30Y_3Hr_Chicago 1704D               
  1S2869_8                   0.47     29.99     85.00    0.5000 Rain_30Y_3Hr_Chicago 17032               
  1S2869_9                   0.38     30.00     85.00    0.5000 Rain_30Y_3Hr_Chicago 17033               
  1S2870_1                   0.74     30.00     85.00    0.5000 Rain_30Y_3Hr_Chicago 172EF               
  1S2870_11                  1.57     30.00     85.00    0.5000 Rain_30Y_3Hr_Chicago J439                
  1S2870_12                  0.35     30.00     85.00    0.5000 Rain_30Y_3Hr_Chicago J259                
  1S2870_13                  0.39     30.00     85.00    0.5000 Rain_30Y_3Hr_Chicago 172F6               
  1S2870_14                  0.42     29.99     85.00    0.5000 Rain_30Y_3Hr_Chicago J16                 
  1S2870_15                  0.33     30.00     85.00    0.5000 Rain_30Y_3Hr_Chicago J17                 
  1S2870_16                  0.55     30.01     85.00    0.5000 Rain_30Y_3Hr_Chicago 1731A               
  1S2870_17                  1.28     30.00     85.00    0.5000 Rain_30Y_3Hr_Chicago 1731B               
  1S2870_2                   0.67     30.00     85.00    0.5000 Rain_30Y_3Hr_Chicago 172F0               
  1S2870_3                   0.69     30.00     85.00    0.5000 Rain_30Y_3Hr_Chicago 172C7               
  1S2870_5                   0.39     30.00     85.00    0.5000 Rain_30Y_3Hr_Chicago J257                
  1S2870_6                   0.71     29.99     82.62    0.5000 Rain_30Y_3Hr_Chicago 172F5               
  1S2870_7                   0.30     30.00     85.00    0.5000 Rain_30Y_3Hr_Chicago 172C6               
  1S2870_8                   0.50     30.00     82.20    0.5000 Rain_30Y_3Hr_Chicago 172CC               
  1S2870_9                   0.69     30.00     80.08    0.5000 Rain_30Y_3Hr_Chicago 172CD               
  1S2996_1                   1.29     29.92     85.00    0.5000 Rain_30Y_3Hr_Chicago 16E38               
  1S2996_3                   1.40     30.00     79.57    0.5000 Rain_30Y_3Hr_Chicago 16E3F               
  1S2996_4                   1.46     30.00     82.70    0.5000 Rain_30Y_3Hr_Chicago 16E3E               
  1S2996_5                   0.86     30.12     85.00    0.5000 Rain_30Y_3Hr_Chicago 16E38               
  1S3010_1                   1.59     30.00     85.00    0.5000 Rain_30Y_3Hr_Chicago 16EC8               
  1S3010_2                   1.15     30.00     85.00    0.5000 Rain_30Y_3Hr_Chicago 16E71               
  1S3010_3                   1.38     30.00     85.00    0.5000 Rain_30Y_3Hr_Chicago 16EC9               
  1S3010_5                   1.04     30.00     78.92    0.5000 Rain_30Y_3Hr_Chicago XJ54                
  1S3013_1                   0.77     30.00     80.44    0.5000 Rain_30Y_3Hr_Chicago 16E89               
  1S3013_2                   0.95     30.00     83.20    0.5000 Rain_30Y_3Hr_Chicago 16E8D               
  1S3014_1                   0.84     30.00     85.00    0.5000 Rain_30Y_3Hr_Chicago 16EA8               
  1S3014_2                   0.85     30.00     85.00    0.5000 Rain_30Y_3Hr_Chicago 16EA7               
  1S3019_1                   1.08     30.01     85.00    0.5000 Rain_30Y_3Hr_Chicago 16F24               
  1S3019_2                   0.91     30.00     84.25    0.5000 Rain_30Y_3Hr_Chicago 16F0E               
  1S3019_3                   1.30     30.00     85.00    0.5000 Rain_30Y_3Hr_Chicago 16F26               
  1S3019_5                   0.35     30.00     84.92    0.5000 Rain_30Y_3Hr_Chicago 16F21               
  1S3022_1                   0.79     30.00     85.00    0.5000 Rain_30Y_3Hr_Chicago 16F43               
  1S3022_2                   0.96     30.00     85.00    0.5000 Rain_30Y_3Hr_Chicago 16F44               
  1S3023_1                   0.77     30.00     85.00    0.5000 Rain_30Y_3Hr_Chicago 16F9A               
  1S3023_3                   0.91     30.00     85.00    0.5000 Rain_30Y_3Hr_Chicago 16F9F               
  1S3023_4                   0.56     30.00     85.00    0.5000 Rain_30Y_3Hr_Chicago 16F9D               
  1S3023_5                   0.52     30.00     85.00    0.5000 Rain_30Y_3Hr_Chicago 16F9C               
  1S3024_1                   0.72     30.00     85.00    0.5000 Rain_30Y_3Hr_Chicago 16FB1               
  1S3024_2                   0.72     30.00     85.00    0.5000 Rain_30Y_3Hr_Chicago 16FB5               
  1S3024_3                   0.90     30.00     85.00    0.5000 Rain_30Y_3Hr_Chicago J270                
  1S3024_4                   0.67     30.00     85.00    0.5000 Rain_30Y_3Hr_Chicago 16FB4               
  1S3024_6                   0.54     30.00     85.00    0.5000 Rain_30Y_3Hr_Chicago 16FAF               
  1S3024_7                   0.61     30.00     85.00    0.5000 Rain_30Y_3Hr_Chicago 16FAE               
  1S3024_8                   0.54     30.00     85.00    0.5000 Rain_30Y_3Hr_Chicago 17280               
  1S3024_9                   0.65     30.00     85.00    0.5000 Rain_30Y_3Hr_Chicago 17281               
  1S3026_1                   0.47     30.00     85.00    0.5000 Rain_30Y_3Hr_Chicago 16FC5               
  1S3026_2                   0.64     30.00     85.00    0.5000 Rain_30Y_3Hr_Chicago J254                
  1S3026_3                   0.77     29.99     84.00    0.5000 Rain_30Y_3Hr_Chicago 16FC4               
  1S3026_4                   0.72     30.00     85.00    0.5000 Rain_30Y_3Hr_Chicago 16FCB               
  1S3026_6                   0.82     30.00     85.00    0.5000 Rain_30Y_3Hr_Chicago 16FC8               
  1S3026_7                   0.58     30.00     85.00    0.5000 Rain_30Y_3Hr_Chicago 16FC9               
  1S3027_1                   0.85     29.99     85.00    0.5000 Rain_30Y_3Hr_Chicago 16FFA               
  1S3027_3                   1.05     30.00     85.00    0.5000 Rain_30Y_3Hr_Chicago 16FF6               
  1S3027_4                   0.96     30.00     85.00    0.5000 Rain_30Y_3Hr_Chicago 16FF8               
  1S3027_5                   0.93     30.00     84.22    0.5000 Rain_30Y_3Hr_Chicago J264                
  1S3036_1                   0.87     30.00     85.00    0.5000 Rain_30Y_3Hr_Chicago J8                  
  1S3036_2                   1.17     30.00     85.00    0.5000 Rain_30Y_3Hr_Chicago J8                  
  1S3037_1                   0.74     30.00     85.00    0.5000 Rain_30Y_3Hr_Chicago 16FCB               
  1S3037_2                   0.54     30.00     85.00    0.5000 Rain_30Y_3Hr_Chicago 1J5                 
  1S3040_1                   0.66     29.98     85.00    0.5000 Rain_30Y_3Hr_Chicago 17314               
  1S3040_10                  0.69     30.00     85.00    0.5000 Rain_30Y_3Hr_Chicago 17312               
  1S3040_12                  0.36     30.27     85.00    0.5000 Rain_30Y_3Hr_Chicago 1730E               
  1S3040_13                  0.67     30.00     85.00    0.5000 Rain_30Y_3Hr_Chicago 1730F               
  1S3040_2                   0.81     30.00     85.00    0.5000 Rain_30Y_3Hr_Chicago 1730C               
  1S3040_3                   0.81     30.00     85.00    0.5000 Rain_30Y_3Hr_Chicago 17315               
  1S3040_4                   0.50     29.78     85.00    0.5000 Rain_30Y_3Hr_Chicago 17311               
  1S3040_5                   0.61     30.00     85.00    0.5000 Rain_30Y_3Hr_Chicago 1730B               
  1S3040_6                   0.78     29.99     85.00    0.5000 Rain_30Y_3Hr_Chicago 17305               
  1S3040_7                   0.93     29.99     85.00    0.5000 Rain_30Y_3Hr_Chicago 172AF               
  1S3040_8                   0.50     30.00     85.00    0.5000 Rain_30Y_3Hr_Chicago 17308               
  1S3040_9                   0.57     30.00     85.00    0.5000 Rain_30Y_3Hr_Chicago 17309               
  1S3100_2                   2.27    150.69     20.00    0.5000 Rain_30Y_3Hr_Chicago J297                
  1S3138_1                   2.29    151.19     10.00    0.5000 Rain_30Y_3Hr_Chicago J143                
  1S33_1                     0.45     30.00     84.87    0.5000 Rain_30Y_3Hr_Chicago J215                
  1S33_10                    0.65     29.98     85.00    0.5000 Rain_30Y_3Hr_Chicago J151                
  1S33_2                     0.58     30.02     85.00    0.5000 Rain_30Y_3Hr_Chicago 16FBF               
  1S33_3                     1.46    120.86     24.70    0.5000 Rain_30Y_3Hr_Chicago XJ194               
  1S33_5                     0.63     30.00     85.00    0.5000 Rain_30Y_3Hr_Chicago J10                 
  1S33_6                     0.65     30.00     85.00    0.5000 Rain_30Y_3Hr_Chicago J9                  
  1S33_7                     0.65     30.00     85.00    0.5000 Rain_30Y_3Hr_Chicago J7                  
  1S33_8                     0.61     30.00     85.00    0.5000 Rain_30Y_3Hr_Chicago J8                  
  1S33_9                     0.65     30.00     83.48    0.5000 Rain_30Y_3Hr_Chicago J117                
  1S3301_2                   0.03     17.72     15.29    0.5000 Rain_30Y_3Hr_Chicago XJ195               
  1S3304_2                   1.72    131.04      0.01    0.5000 Rain_30Y_3Hr_Chicago J16                 
  1S3373_1                   1.20    109.61     16.00    0.5000 Rain_30Y_3Hr_Chicago J266                
  1S3399_1                   1.92    138.71     10.43    0.5000 Rain_30Y_3Hr_Chicago 16FFD               
  1S3407_2                   1.05    102.24      6.23    0.5000 Rain_30Y_3Hr_Chicago J257                
  1S3412_1                   0.84     91.53     13.14    0.5000 Rain_30Y_3Hr_Chicago 16FB4               
  1S3412_2                   0.07     26.21     13.83    0.5000 Rain_30Y_3Hr_Chicago XJ190               
  1S3414_1                   0.26     50.86     41.91    0.5000 Rain_30Y_3Hr_Chicago XJ188               
  1S3414_2                   1.81    134.72     43.06    0.5000 Rain_30Y_3Hr_Chicago 16F9F               
  1S3450_1                   4.43    210.58     76.14    0.5000 Rain_30Y_3Hr_Chicago 16F44               
  1S3451_1                   3.12    176.62     40.29    0.5000 Rain_30Y_3Hr_Chicago 16F44               
  1S3452_1                   5.26    229.44     62.94    0.5000 Rain_30Y_3Hr_Chicago 16F6D               
  1S3495_9                   2.64    162.40      5.00    0.5000 Rain_30Y_3Hr_Chicago 16F4F               
  1S3522_2                   2.47    157.10     39.87    0.5000 Rain_30Y_3Hr_Chicago XJ51                
  1S4191_11                  5.13    226.46     20.87    0.5000 Rain_30Y_3Hr_Chicago XJ182               
  1S4191_2                   1.53    123.58     72.23    0.5000 Rain_30Y_3Hr_Chicago XJOF71              
  1S4191_3                   2.72    164.92     52.67    0.5000 Rain_30Y_3Hr_Chicago XJ178               
  1S4191_4                   0.51     71.17     10.00    0.5000 Rain_30Y_3Hr_Chicago XJ178               
  1S4191_5                   1.54    124.03     22.70    0.5000 Rain_30Y_3Hr_Chicago XJ180               
  1S4191_6                   0.38     61.93     10.00    0.5000 Rain_30Y_3Hr_Chicago XJ177               
  1S4191_7                   1.25    111.60     28.72    0.5000 Rain_30Y_3Hr_Chicago XJ175               
  1S4191_8                   4.91    221.56     20.23    0.5000 Rain_30Y_3Hr_Chicago XJ176               
  1S4191_9                   5.80    240.77     14.87    0.5000 Rain_30Y_3Hr_Chicago XJOF89              
  1S44_3                     1.47    121.23     64.01    0.5000 Rain_30Y_3Hr_Chicago 17000               
  1S52_3                     2.34     30.00     85.00    0.5000 Rain_30Y_3Hr_Chicago J276-1              
  2                          1.16    115.86     25.00    0.5000 Rain_30Y_3Hr_Chicago J544R               
  28489                      1.20    109.49     74.75    0.5000 Rain_30Y_3Hr_Chicago XJ205               
  28493                      1.33    115.46     21.22    0.5000 Rain_30Y_3Hr_Chicago XJ208               
  2S1                        2.13    145.89     36.23    0.5000 Rain_30Y_3Hr_Chicago 238F0               
  2S10                       1.19     30.00     80.79    0.5000 Rain_30Y_3Hr_Chicago 28414               
  2S11                       1.37     30.00     75.80    0.5000 Rain_30Y_3Hr_Chicago J206                
  2S12                       1.19    109.06     17.66    0.5000 Rain_30Y_3Hr_Chicago XJ28405             
  2S13                       0.36     59.87     29.14    0.5000 Rain_30Y_3Hr_Chicago XJ158               
  2S14                       1.11    105.27     34.89    0.5000 Rain_30Y_3Hr_Chicago XJ79                
  2S15                       2.98    172.65     54.83    0.5000 Rain_30Y_3Hr_Chicago 235B1               
  2S16                       2.65    162.78     72.64    0.5000 Rain_30Y_3Hr_Chicago 235B2               
  2S18                       2.91    170.44     34.80    0.5000 Rain_30Y_3Hr_Chicago XJ12                
  2S19                       0.61     77.83     23.69    0.5000 Rain_30Y_3Hr_Chicago XJ11                
  2S2_2                      0.44     30.00     83.99    0.5000 Rain_30Y_3Hr_Chicago 23449               
  2S2_3                      0.83     30.00     85.00    0.5000 Rain_30Y_3Hr_Chicago 23418               
  2S2_4                      0.66     30.00     85.00    0.5000 Rain_30Y_3Hr_Chicago 2388D               
  2S20                       1.62    127.28     40.17    0.5000 Rain_30Y_3Hr_Chicago 2361F               
  2S23                       1.60    126.29     21.77    0.5000 Rain_30Y_3Hr_Chicago XJ28405             
  2S29                       4.95    222.39     32.81    0.5000 Rain_30Y_3Hr_Chicago J209                
  2S2908_2                   1.30     30.00     84.59    0.5000 Rain_30Y_3Hr_Chicago 2352F               
  2S2908_3                   1.21     30.00     74.11    0.5000 Rain_30Y_3Hr_Chicago J197                
  2S2908_4                   1.30     30.00     80.32    0.5000 Rain_30Y_3Hr_Chicago 2351A               
  2S3                        1.63     30.00     83.95    0.5000 Rain_30Y_3Hr_Chicago 2388D               
  2S30                       1.60    126.31     24.68    0.5000 Rain_30Y_3Hr_Chicago XJ2852B             
  2S31                       5.01    223.80     28.69    0.5000 Rain_30Y_3Hr_Chicago 239E4               
  2S32                       5.97    244.33     32.94    0.5000 Rain_30Y_3Hr_Chicago J51                 
  2S4                        0.75     30.00     82.35    0.5000 Rain_30Y_3Hr_Chicago 2351F               
  2S5_2                      1.38     30.00     75.90    0.5000 Rain_30Y_3Hr_Chicago 234A2               
  2S5_3                      1.50     30.00     85.00    0.5000 Rain_30Y_3Hr_Chicago 234AA               
  2S5_4                      1.80     30.00     76.74    0.5000 Rain_30Y_3Hr_Chicago 234A4               
  2S6_1                      0.34     30.00     85.00    0.5000 Rain_30Y_3Hr_Chicago J196                
  2S6_2                      0.36     30.00     81.37    0.5000 Rain_30Y_3Hr_Chicago J199                
  2S6_3                      1.14     30.01     75.54    0.5000 Rain_30Y_3Hr_Chicago 23527               
  2S6_5                      1.10     30.00     82.83    0.5000 Rain_30Y_3Hr_Chicago J196                
  2S6_6                      1.17     30.00     83.12    0.5000 Rain_30Y_3Hr_Chicago J199                
  2S7                        5.47    233.93     69.77    0.5000 Rain_30Y_3Hr_Chicago 285FB               
  2S8                        3.54    188.12     51.36    0.5000 Rain_30Y_3Hr_Chicago 2847B               
  2S9                        0.97     98.65     50.00    0.5000 Rain_30Y_3Hr_Chicago 28414               
  3                         25.36   2536.45     25.00    0.5000 Rain_30Y_3Hr_Chicago XJ2363D             
  4                         26.97    500.00     25.00    0.5000 Rain_30Y_3Hr_Chicago 172FA               
  5                         27.90    499.98     25.00    0.5000 Rain_30Y_3Hr_Chicago 172E7               
  586                        0.63     30.00     85.00    0.5000 Rain_30Y_3Hr_Chicago J275-1              
  58C                        0.68     30.00     85.00    0.5000 Rain_30Y_3Hr_Chicago J1-11               
  596                        1.45     30.00     85.00    0.5000 Rain_30Y_3Hr_Chicago J1-1                
  599                        0.87     30.00     85.00    0.5000 Rain_30Y_3Hr_Chicago J1-1                
  59D                        0.59     30.00     85.00    0.5000 Rain_30Y_3Hr_Chicago J157-1              
  5A3                        1.74     30.00     85.00    0.5000 Rain_30Y_3Hr_Chicago J146-1              
  5A4_1                      1.37     30.00     85.00    0.5000 Rain_30Y_3Hr_Chicago J1-1                
  5A4_2                      1.19     29.99     85.00    0.5000 Rain_30Y_3Hr_Chicago J1-1                
  6                          4.53    500.15     25.00    0.5000 Rain_30Y_3Hr_Chicago 172EE               
  62F                        1.31     30.00     85.00    0.5000 Rain_30Y_3Hr_Chicago J1111111            
  63F_1                      1.22     30.00     80.00    0.5000 Rain_30Y_3Hr_Chicago 236E0               
  63F_2                      1.51     36.87     63.80    0.5000 Rain_30Y_3Hr_Chicago J552R               
  63F_3                      1.50     29.99     80.00    0.5000 Rain_30Y_3Hr_Chicago 236E1               
  64B_1                      3.33     30.00     85.00    0.5000 Rain_30Y_3Hr_Chicago 2331C               
  64B_3                      1.78     30.00     85.00    0.5000 Rain_30Y_3Hr_Chicago 232E9               
  655_1                      1.24     29.99     85.00    0.5000 Rain_30Y_3Hr_Chicago 2331C               
  655_3                      0.77     30.00     85.00    0.5000 Rain_30Y_3Hr_Chicago 236E0               
  66A                        0.85     30.00     77.70    0.5000 Rain_30Y_3Hr_Chicago OF38                
  698                        1.12     30.00     85.00    0.5000 Rain_30Y_3Hr_Chicago J50                 
  699                        4.70     30.00     85.00    0.5000 Rain_30Y_3Hr_Chicago J280                
  6B3_3                      0.67     30.00     85.00    0.5000 Rain_30Y_3Hr_Chicago J278-1              
  6B3_4                      0.44     30.00     85.00    0.5000 Rain_30Y_3Hr_Chicago J278-1              
  6B4_1                      0.52     30.01     85.00    0.5000 Rain_30Y_3Hr_Chicago J280                
  6B4_3                      0.83     29.99     85.00    0.5000 Rain_30Y_3Hr_Chicago J280                
  6B4_4                      0.62     30.00     85.00    0.5000 Rain_30Y_3Hr_Chicago J280                
  6B4_5                      0.87     30.00     85.00    0.5000 Rain_30Y_3Hr_Chicago J280                
  6CD_2                      1.03     30.00     85.00    0.5000 Rain_30Y_3Hr_Chicago J276-1              
  6CD_3                      0.89     30.00     85.00    0.5000 Rain_30Y_3Hr_Chicago J276-1              
  6CD_4                      0.81     30.00     85.00    0.5000 Rain_30Y_3Hr_Chicago J278-1              
  6CD_5                      0.78     30.00     85.00    0.5000 Rain_30Y_3Hr_Chicago J278-1              
  759                        1.09     30.00     84.30    0.5000 Rain_30Y_3Hr_Chicago OF37                
  9EA_1                      2.57    160.41      2.15    0.5000 Rain_30Y_3Hr_Chicago J11111114           
  9EA_3                      2.04    142.77     18.97    0.5000 Rain_30Y_3Hr_Chicago J1111111            
  9EA_4                      2.43    155.78      2.39    0.5000 Rain_30Y_3Hr_Chicago J1111111            
  9EA_5                      2.72    164.91      0.00    0.5000 Rain_30Y_3Hr_Chicago J11111114           
  9FC_1                      5.63    237.30      0.77    0.5000 Rain_30Y_3Hr_Chicago 232EA               
  9FC_3                      6.05    245.96      0.76    0.5000 Rain_30Y_3Hr_Chicago 232EA               
  9FC_4                      4.78    218.56      5.00    0.5000 Rain_30Y_3Hr_Chicago 232EA               
  9FC_5                      5.25    229.23     11.61    0.5000 Rain_30Y_3Hr_Chicago 232EA               
  9FF_1                      4.91    221.60      6.03    0.5000 Rain_30Y_3Hr_Chicago 232EE               
  9FF_3                      4.51    212.31     20.00    0.5000 Rain_30Y_3Hr_Chicago J451                
  9FF_4                      4.62    214.94     41.28    0.5000 Rain_30Y_3Hr_Chicago J1111111            
  9FF_5                      5.16    227.12      0.61    0.5000 Rain_30Y_3Hr_Chicago J1111111            
  A04_1                      4.96    222.64      0.00    0.5000 Rain_30Y_3Hr_Chicago J111111112          
  A04_3                      5.17    227.48      0.00    0.5000 Rain_30Y_3Hr_Chicago 232EA               
  A04_4                      4.94    222.16      0.00    0.5000 Rain_30Y_3Hr_Chicago J545R               
  A04_5                      4.98    223.17      0.00    0.5000 Rain_30Y_3Hr_Chicago J536                
  A0D_1                      4.99    223.31     83.00    0.5000 Rain_30Y_3Hr_Chicago OF37                
  A0D_3                      4.92    221.90     85.00    0.5000 Rain_30Y_3Hr_Chicago OF37                
  A0D_4                      5.37    231.78     85.00    0.5000 Rain_30Y_3Hr_Chicago OF37                
  A0D_5                      5.20    227.93     85.00    0.5000 Rain_30Y_3Hr_Chicago OF37                
  A1B_1                      3.29    181.40     85.00    0.5000 Rain_30Y_3Hr_Chicago OF38                
  A1B_3                      4.28    206.80     85.00    0.5000 Rain_30Y_3Hr_Chicago OF38                
  A1B_4                      3.31    181.99     85.00    0.5000 Rain_30Y_3Hr_Chicago OF38                
  A1B_5                      2.72    164.91     85.00    0.5000 Rain_30Y_3Hr_Chicago OF38                
  A7A_1                      4.05    201.22     20.00    0.5000 Rain_30Y_3Hr_Chicago J280                
  A7A_3                      4.86    220.49     20.00    0.5000 Rain_30Y_3Hr_Chicago J280                
  A7A_4                      4.31    207.50     20.00    0.5000 Rain_30Y_3Hr_Chicago OF12                
  A7A_5                      4.20    204.90     20.00    0.5000 Rain_30Y_3Hr_Chicago OF12                
  A7E_1                      1.39    118.04      0.00    0.5000 Rain_30Y_3Hr_Chicago J273                
  A7E_3                      2.55    159.68      1.30    0.5000 Rain_30Y_3Hr_Chicago J273                
  A7E_4                      2.41    155.39     29.58    0.5000 Rain_30Y_3Hr_Chicago J276                
  A7E_5                      1.72    131.13     45.54    0.5000 Rain_30Y_3Hr_Chicago J276                
  A7F_1                      2.21    148.68     50.00    0.5000 Rain_30Y_3Hr_Chicago J50                 
  A7F_3                      2.39    154.72     16.95    0.5000 Rain_30Y_3Hr_Chicago J277                
  A7F_4                      2.40    154.76     39.45    0.5000 Rain_30Y_3Hr_Chicago J280                
  A7F_5                      2.37    154.09     85.00    0.5000 Rain_30Y_3Hr_Chicago J50                 
  A81_1                     14.16    376.25     20.00    0.5000 Rain_30Y_3Hr_Chicago J280                
  A81_3                     14.41    379.66     20.00    0.5000 Rain_30Y_3Hr_Chicago J280                
  A81_4                     15.45    393.06     20.00    0.5000 Rain_30Y_3Hr_Chicago J280                
  A81_5                     15.34    391.62     20.00    0.5000 Rain_30Y_3Hr_Chicago J280                
  A86_1                     20.84    456.54     20.00    0.5000 Rain_30Y_3Hr_Chicago J280                
  A86_3                     21.65    465.30     20.00    0.5000 Rain_30Y_3Hr_Chicago J278-1              
  A86_4                     18.37    428.56     20.00    0.5000 Rain_30Y_3Hr_Chicago J278-1              
  A86_5                     15.02    387.53     20.00    0.5000 Rain_30Y_3Hr_Chicago J278-1              
  A8F_1                      7.79    279.10     34.90    0.5000 Rain_30Y_3Hr_Chicago J278-1              
  A8F_2                      3.37    183.51     85.00    0.5000 Rain_30Y_3Hr_Chicago J278-1              
  D25_1                      3.05    100.54      5.00    0.5000 Rain_30Y_3Hr_Chicago 3335                
  D25_3                      6.16    202.99      5.00    0.5000 Rain_30Y_3Hr_Chicago 236E0               
  DB0                        0.56     74.50     56.41    0.5000 Rain_30Y_3Hr_Chicago J280                
  DB1                        0.54     73.78      0.00    0.5000 Rain_30Y_3Hr_Chicago J273                
  DB2                        0.61     78.01     21.02    0.5000 Rain_30Y_3Hr_Chicago OF12                
  S1                         1.25    111.88      6.62    0.5000 Rain_30Y_3Hr_Chicago J251                
  S1_1                       2.18     30.00     79.75    0.5000 Rain_30Y_3Hr_Chicago 18609               
  S1_3                       2.02     30.00     56.86    0.5000 Rain_30Y_3Hr_Chicago J231                
  S1_4                       2.02     30.00     71.98    0.5000 Rain_30Y_3Hr_Chicago 185F6               
  S10                        1.27    112.76     10.18    0.5000 Rain_30Y_3Hr_Chicago 16EBC               
  S100                       0.99     98.65      5.00    0.5000 Rain_30Y_3Hr_Chicago J329                
  S100J                      6.82    489.62     95.00    0.5000 Rain_30Y_3Hr_Chicago she                 
  S101                       0.26     25.98     69.50    0.5000 Rain_30Y_3Hr_Chicago J328                
  S102                       7.00    699.76     83.68    0.5000 Rain_30Y_3Hr_Chicago J461                
  S102_1                     0.76     75.72     68.20    0.5000 Rain_30Y_3Hr_Chicago J310                
  S102_2                     0.93     93.26     70.20    0.5000 Rain_30Y_3Hr_Chicago J309                
  S103                     954.31  95431.27     15.00    0.5000 Rain_30Y_3Hr_Chicago J292-D              
  S103_1                     0.79     79.47     75.60    0.5000 Rain_30Y_3Hr_Chicago J315                
  S103_10                    0.93     93.42     65.00    0.5000 Rain_30Y_3Hr_Chicago J540R               
  S103_11J                   2.77    500.00     15.00    0.5000 Rain_30Y_3Hr_Chicago XJ305               
[...]
  C223_1                      2.34      2.34      2.42      0.01         0.01
  C223_1-S                    0.01      0.01      0.97      0.01         0.01
  C223_2                      2.24      2.38      2.24      2.39         2.24
  C223_2-S                    0.01      0.01      0.97      0.01         0.01
  C224                        2.05      2.05      2.15      0.01         0.01
  C225                        2.01      2.01      2.19      1.26         1.28
  C226                        2.18      2.19      2.18      2.21         2.18
  C227                        0.01      1.53      0.01      2.17         0.01
  C228                        2.19      2.23      2.24      1.18         1.14
  C229                        2.16      2.16      2.27      0.09         0.07
  C230                        2.45      2.45      2.45      0.19         0.16
  C231                        0.01      0.31      0.01      0.54         0.01
  C232                        0.01      2.40      0.01      2.35         0.01
  C233                        0.50      0.50      0.74      0.01         0.01
  C233_1                      0.01      0.01      1.79      0.01         0.01
  C233_2                      1.85      1.85      2.10      0.01         0.01
  C234                        0.01      0.74      0.01      0.79         0.01
  C234_1                      0.69      0.69      2.27      0.01         0.01
  C234_2                      2.13      2.27      2.13      0.33         0.15
  C235                        2.13      2.13      2.13      0.14         0.13
  C235-S                      0.01      0.01      0.01      0.96         0.01
  C236                        2.03      2.11      2.03      2.12         2.03
  C237                        2.03      2.12      2.03      2.13         2.03
  C238                        2.09      2.11      2.13      0.97         0.92
  C239                        2.08      2.11      2.12      0.96         0.90
  C240_2                      1.36      1.40      2.01      0.31         0.25
  C241                        1.14      1.14      1.42      0.01         0.01
  C241_1                      0.12      0.12      1.42      0.01         0.01
  C241_2                      1.37      1.42      2.01      0.30         0.23
  C242                        2.12      2.12      2.17      0.01         0.01
  C243                        0.47      0.47      2.01      0.01         0.01
  C244                        0.91      0.92      2.01      0.20         0.17
  C245                        2.11      2.11      2.17      0.01         0.01
  C246                        2.12      2.12      2.17      0.01         0.01
  C247                        2.12      2.12      2.17      0.01         0.01
  C248                        0.01      1.42      0.01      1.47         0.01
  C249                        0.01      0.01      0.87      0.01         0.01
  C250                        0.01      0.01      0.86      0.01         0.01
  C251                        1.00      1.00      1.76      0.01         0.01
  C252                        1.10      1.12      1.62      0.13         0.09
  C253_1                      1.67      1.72      1.74      0.35         0.27
  C253_2                      1.70      1.74      1.76      0.31         0.23
  C254                        1.73      1.76      1.74      0.82         0.73
  C254-S                      0.01      0.01      0.01      0.89         0.01
  C255                        1.62      1.62      1.91      0.27         0.27
  C256                        1.87      1.91      1.87      1.63         1.54
  C257_1                      1.15      1.15      1.31      0.06         0.07
  C257_2                      1.31      1.31      1.34      0.44         0.40
  C258                        1.09      1.34      1.09      1.00         0.69
  C258-S                      0.01      0.01      0.01      0.65         0.01
  C259                        0.92      0.92      1.25      0.28         0.28
  C260                        0.01      1.25      0.01      1.30         0.01
  C261                        0.01      0.01      0.71      0.01         0.01
  C262                        0.67      0.67      2.24      0.01         0.01
  C263                        1.14      1.14      1.30      0.03         0.02
  C264                        1.25      1.25      2.24      1.20         1.17
  C265                        2.31      2.31      2.39      0.92         0.01
  C265-S                      0.01      0.01      2.04      0.01         0.01
  C266                        2.35      2.35      2.37      0.01         0.01
  C267                        2.35      2.35      2.37      1.14         1.15
  C268                        0.01      1.09      0.01      1.47         0.01
  C269                        0.58      0.58      1.18      0.01         0.01
  C27                         1.51      1.51      1.98      0.07         0.07
  C270                        0.70      0.70      0.89      0.01         0.01
  C271                        0.72      0.73      0.77      0.70         0.66
  C272                        0.01      0.62      0.01      0.65         0.01
  C273                        0.01      0.59      0.01      0.63         0.01
  C274                        1.49      1.49      2.26      0.01         0.01
  C275                        1.73      1.73      2.26      0.30         0.29
  C276                        2.22      2.22      2.27      0.01         0.01
  C276-S                      0.01      0.01      0.01      0.06         0.01
  C277                        0.62      1.64      0.62      1.34         0.31
  C278                        0.41      0.41      0.54      0.01         0.01
  C279                        0.54      0.54      2.25      0.01         0.01
  C280                        2.24      2.24      2.25      0.01         0.01
  C282                        1.69      1.69      2.16      0.01         0.01
  C283                        1.69      1.69      2.15      0.01         0.01
  C284                        2.25      2.25      2.28      0.06         0.06
  C285                        2.20      2.20      2.21      0.06         0.05
  C286                        0.38      0.38      0.43      0.43         0.38
  C286_1                      2.21      2.21      2.22      1.51         1.50
  C288                        0.01      0.01      0.01      0.05         0.01
  C292                        0.01      0.66      0.01      0.70         0.01
  C294                        0.01      0.01      0.43      0.01         0.01
  C295                        0.46      0.71      0.46      0.75         0.46
  C296                        0.32      0.32      2.19      0.01         0.01
  C297                        0.01      0.01      0.16      0.01         0.01
  C298                        0.01      0.30      0.01      0.46         0.01
  C30                         0.01      0.01      2.52      0.01         0.01
  C300                        0.01      2.21      0.01      2.22         0.01
  C301                        0.01      0.01      0.03      0.01         0.01
  C303                        0.44      0.57      0.44      0.60         0.44
  C305                        0.01      1.05      0.01      1.08         0.01
  C306                        1.00      1.00      1.76      0.16         0.14
  C307                        1.69      1.69      1.90      0.09         0.09
  C308_1                      1.51      1.63      1.52      1.69         1.51
  C308_2                      0.01      0.30      0.01      1.66         0.01
  C310                        0.01      0.01      1.48      0.01         0.01
  C311                        0.01      0.01      1.39      0.01         0.01
  C312                        1.44      1.53      1.44      1.57         1.44
  C313                        0.19      1.04      0.19      1.54         0.19
  C314                        0.01      0.01      0.01      0.14         0.01
  C316                        0.01      0.80      0.01      0.84         0.01
  C31-D                       0.01      0.11      0.01      0.42         0.01
  C322                        0.01      1.69      0.01      1.83         0.01
  C323                        0.63      1.45      0.63      1.49         0.63
  C324                        0.01      0.01      0.63      0.01         0.01
  C325                        0.01      0.01      1.23      0.01         0.01
  C326                        1.00      1.02      1.00      1.15         1.00
  C327_1                      0.01      0.77      0.01      1.07         0.01
  C327_4                      0.01      0.01      0.59      0.01         0.01
  C328                        0.93      2.39      0.93      2.40         0.93
  C329                        0.93      2.43      0.93      2.41         0.89
  C331                        2.03      2.03      2.03      0.01         0.01
  C332                        2.26      2.26      2.34      0.01         0.01
  C333                        2.29      2.29      2.34      0.01         0.01
  C336                        2.36      2.38      2.36      2.41         2.36
  C337                        2.31      2.36      2.31      1.49         1.42
  C338                        1.61      1.61      1.92      1.12         1.12
  C340                        0.01      0.01      1.80      0.01         0.01
  C342                        0.73      0.73      1.52      0.01         0.01
  C342-S                      0.01      0.01      0.01      0.01         0.01
  C343                        0.79      0.80      0.81      0.81         0.79
  C344                        1.57      1.57      2.53      0.08         0.08
  C344-S                      0.01      0.01      0.40      0.01         0.01
  C345                        2.24      2.31      2.24      1.74         1.61
  C345-S                      0.01      0.40      0.01      0.83         0.01
  C346                        2.32      2.32      2.39      2.30         2.31
  C346-S                      0.01      0.01      0.40      0.01         0.01
  C347                        2.37      2.37      2.50      0.01         0.01
  C348                        2.43      2.45      2.43      0.59         0.55
  C349                        0.58      0.58      2.37      0.01         0.01
  C35                         0.49      0.49      0.88      0.01         0.05
  C350                        2.37      2.37      2.39      0.36         0.34
  C351                        2.35      2.35      2.44      0.44         0.44
  C352                        2.33      2.33      2.42      0.01         0.01
  C353                        2.40      2.40      2.42      0.14         0.13
  C354                        2.42      2.42      2.47      0.01         0.01
  C355                        2.20      2.20      2.34      0.01         0.01
  C356                        2.34      2.34      2.43      0.01         0.01
  C357                        1.56      1.56      2.30      1.27         1.27
  C358                        2.30      2.30      2.37      1.50         1.50
  C359                        0.77      1.81      0.77      1.31         0.21
  C36                         0.72      0.89      0.72      0.75         0.56
  C360                        0.84      0.84      1.56      0.01         0.01
  C361                        1.40      1.40      1.44      0.01         0.01
  C362                        1.44      1.44      1.65      0.03         0.01
  C363                        0.34      0.34      2.39      0.01         0.01
  C364                        1.08      1.08      2.35      0.01         0.01
  C365                        2.26      2.39      2.26      2.44         2.26
  C366                        0.19      0.19      1.96      0.01         0.01
  C367                        0.81      1.90      0.81      1.96         0.81
  C368                        0.01      0.49      0.01      0.56         0.01
  C369                        1.19      1.19      2.41      0.01         0.01
  C37                         2.17      2.17      2.17      0.01         0.02
  C370                        0.01      2.41      0.01      2.42         0.01
  C371                        0.72      0.72      0.84      0.01         0.01
  C372                        0.01      2.06      0.01      2.10         0.01
  C373                        2.13      2.13      2.15      0.01         0.01
  C373-S                      0.01      0.01      0.01      0.48         0.01
  C375                        2.14      2.14      2.16      0.23         0.01
  C376                        2.15      2.15      2.17      0.24         0.01
  C37-S                       0.01      0.01      0.01      0.61         0.01
  C38                         2.17      2.17      2.19      0.01         0.01
  C38_1                       2.05      2.05      2.07      0.01         0.01
  C38_2                       2.06      2.06      2.07      0.01         0.01
  C380                        0.60      0.60      0.87      0.01         0.01
  C381                        0.01      0.34      0.01      0.69         0.01
  C382                        0.96      1.47      0.96      1.79         0.96
  C382-S                      0.01      0.01      0.01      0.47         0.01
  C384                        0.11      0.49      0.11      0.73         0.11
  C39                         1.34      1.43      1.34      1.47         1.34
  C391                        0.01      0.37      0.01      2.34         0.01
  C394                        2.22      2.22      2.42      0.42         0.42
  C40                         1.90      1.90      1.93      0.01         0.01
  C40-S                       0.01      0.01      0.01      0.30         0.01
  C41_1                       1.58      1.58      1.60      1.12         1.12
  C41_2                       1.42      1.47      1.42      1.61         1.42
  C42                         2.35      2.35      2.36      2.03         2.02
  C42_1                       0.40      0.72      0.40      0.96         0.40
  C42_2                       0.01      0.40      0.01      0.84         0.01
  C426                        0.43      0.43      0.60      0.01         0.01
  C43-D                       0.01      0.01      0.01      2.95         0.01
  C44                         0.65      0.65      0.73      0.01         0.01
  C44_1                       0.86      0.86      0.88      0.01         0.01
  C44_2                       0.72      0.88      0.72      0.66         0.44
  C45                         0.86      0.86      0.87      0.21         0.12
  C45_1                       0.38      0.72      0.38      0.96         0.38
  C45_2                       0.01      0.38      0.01      0.82         0.01
  C474                        1.85      1.88      1.85      1.87         1.80
  C476_1                      0.01      1.74      0.01      1.45         0.01
  C478_1                      0.68      0.68      2.39      0.19         0.19
  C478_2                      1.92      2.22      1.92      1.64         1.29
  C48                         0.01      0.80      0.01      1.24         0.01
  C480                        0.84      0.84      1.10      0.01         0.01
  C481                        1.10      1.10      1.39      0.11         0.01
  C482                        0.91      1.39      0.91      1.49         0.91
  C483                        1.38      1.38      1.46      0.19         0.18
  C484                        1.37      1.46      1.40      0.51         0.41
  C485                        1.15      1.15      1.25      0.01         0.01
  C485-S                      0.01      0.01      0.01      0.25         0.01
  C486                        1.07      1.07      1.40      0.52         0.52
  C49_2                       0.01      0.01      0.01      0.13         0.01
  C5                          0.89      0.90      0.90      0.96         0.85
  C50                         0.01      0.01      0.01      0.25         0.01
  C51                         0.01      0.01      0.23      0.01         0.01
  C52                         0.96      0.96      1.34      0.07         0.06
  C52_1                       0.01      0.01      0.01      0.15         0.01
  C53                         0.85      0.90      0.86      0.52         0.40
  C53_2                       0.01      0.01      0.09      0.01         0.01
  C57                         0.01      0.01      0.01      0.17         0.01
  C58-D                       0.01      0.01      0.01      2.86         0.01
  C59                         1.03      1.03      1.13      0.01         0.01
  C6                          0.01      0.01      1.85      0.01         0.01
  C60                         1.03      1.03      1.22      0.01         0.01
  C61                         0.81      1.28      0.81      1.37         0.81
  C62                         0.01      0.86      0.01      1.05         0.01
  C63                         0.90      0.90      0.93      0.01         0.01
  C63_1                       0.43      0.70      0.43      0.82         0.43
  C63_2                       0.01      0.43      0.01      0.65         0.01
  C65-D                       0.01      0.01      0.74      0.01         0.01
  C66-D                       0.45      0.74      0.45      2.98         0.41
  C68                         0.91      0.91      0.98      0.01         0.01
  C69                         1.45      1.45      1.49      0.01         0.01
  C7                          0.01      0.01      0.20      0.01         0.01
  C70                         1.34      1.34      1.60      0.01         0.01
  C71                         2.08      2.08      2.11      0.03         0.04
  C72                         1.19      1.22      1.25      0.91         0.87
  C73                         2.17      2.17      2.17      0.99         1.01
  C74                         0.89      0.89      1.00      0.52         0.50
  C75                         0.23      2.21      0.23      2.23         0.23
  C77                         2.09      2.38      2.09      0.95         0.60
  C77-S                       0.01      0.01      0.90      0.01         0.01
  C78-                        2.22      2.22      2.25      0.26         0.29
  C79-D                       0.01      0.45      0.01      2.94         0.01
  C80-D                       0.01      0.01      0.01      0.66         0.01
  C81-D                       0.01      0.01      0.11      0.01         0.01
  C82                         1.14      1.14      1.16      0.90         0.82
  C83                         2.37      2.37      2.39      0.01         0.01
  C84                         1.30      1.30      1.37      0.01         0.01
  C85                         2.21      2.21      2.21      0.69         0.66
  C85-S                       0.01      0.01      1.72      0.01         0.01
  C97                         0.69      0.69      0.99      0.01         0.01
  C97_2                       2.13      2.13      2.13      0.86         0.80
  C98                         0.96      0.96      1.06      0.01         0.01
  C99                         0.79      0.79      1.05      0.01         0.01
  C99_1                       0.83      0.92      0.83      0.57         0.48
  XC101_1                     0.01      0.01      0.01      1.97         0.01
  XC101_7                     0.01      0.01      0.01      1.76         0.01
  XC118                       0.01      0.01      0.01      0.28         0.01
  XC121_2                     0.01      0.01      0.01      0.18         0.01
  XC168_2                     0.01      0.01      0.52      0.01         0.01
  XC77_2                      0.01      0.01      0.01      0.16         0.01
  XC78                        0.01      0.01      0.65      0.01         0.01
  

  Analysis begun on:  Tue Sep 26 21:02:14 2017
  Analysis ended on:  Tue Sep 26 21:03:11 2017
  Total elapsed time: 00:00:57